[TITLE]
Scenario: Customer meter 
Date: 17-07-2022 20:34:44 

[JUNCTIONS]
;ID              	Elev        	Demand      	Pattern         
 30              	5.61        	0.087961408 	1612            	;
 31              	5.95        	0           	                	;
 32              	5.33        	0           	                	;
 33              	4.95        	0.073007994 	1614            	;
 35              	3.49        	0.448580341 	1614            	;
 36              	5.35        	0           	                	;
 37              	5.2         	0           	                	;
 38              	4.7         	0.094864447 	1614            	;
 39              	4.01        	0.731602199 	1614            	;
 40              	5.46        	0.12817049  	1612            	;
 41              	5.25        	0.171117815 	1614            	;
 42              	5.04        	0.095542653 	1612            	;
 43              	4.45        	0.275153806 	1612            	;
 44              	4.2         	0.376341395 	1612            	;
 45              	5.57        	0.331078428 	1612            	;
 46              	7           	0.01023522  	1612            	;
 47              	4.31        	0.372325795 	1614            	;
 48              	3.54        	0.035494871 	1614            	;
 49              	4           	0.140530948 	1614            	;
 50              	4.27        	0.283167798 	1614            	;
 51              	4.39        	0.394352917 	1614            	;
 52              	4.94        	0.21394357  	1612            	;
 53              	3.68        	0.319142415 	1614            	;
 54              	5.71        	0           	                	;
 55              	5.53        	0.087645516 	1614            	;
 56              	6           	0           	                	;
 57              	4.39        	0.634784418 	1614            	;
 58              	3.5         	1.129681789 	1614            	;
 59              	3.36        	0.510814548 	1614            	;
 60              	3.32        	0.794045242 	1614            	;
 61              	6.5         	0.258514684 	1612            	;
 62              	3.71        	0.222910674 	1614            	;
 63              	6.5         	0.064373072 	1612            	;
 64              	6.32        	0.083534383 	1612            	;
 65              	5           	0.255706641 	1614            	;
 66              	5           	0           	                	;
 67              	5.91        	0.486092075 	1612            	;
 68              	5.93        	0.095914333 	1612            	;
 69              	5.25        	1.434010586 	1612            	;
 70              	3.5         	0.337300843 	1614            	;
 71              	5.15        	0.797870432 	1612            	;
 72              	4.42        	0.522561623 	1614            	;
 73              	5           	0.12413147  	1614            	;
 74              	3.5         	0.112954111 	1614            	;
 75              	3.5         	0.574815159 	1614            	;
 76              	3.5         	0.184426171 	1614            	;
 77              	5.49        	0.091247197 	1614            	;
 78              	5.31        	0           	                	;
 79              	5.39        	0.278236277 	1614            	;
 80              	4.93        	0.479797133 	1612            	;
 81              	3.55        	0.009401436 	1614            	;
 82              	4.81        	0.362176021 	1612            	;
 83              	4.56        	0.409641405 	1612            	;
 84              	3.5         	0.847571294 	1614            	;
 85              	3.56        	0.821042851 	1614            	;
 86              	3.5         	0.584273692 	1614            	;
 87              	3.5         	0.362253818 	1614            	;
 88              	3.5         	0.851139899 	1614            	;
 89              	3.5         	0.798527211 	1614            	;
 90              	5.5         	0.728504571 	1612            	;
 91              	5.61        	0.137789684 	1612            	;
 92              	3.5         	0           	                	;
 93              	3.62        	0.159858123 	1614            	;
 94              	3.91        	0.026065597 	1614            	;
 95              	3.82        	0.485440472 	1614            	;
 96              	4.51        	0.066971266 	1614            	;
 97              	3.96        	0.673268665 	1614            	;
 98              	4.27        	0.274808993 	1614            	;
 99              	5.25        	0.097985118 	1614            	;
 100             	5           	0           	                	;
 101             	3.5         	0           	                	;
 102             	4.69        	1.073303652 	1614            	;
 103             	6.02        	0           	                	;
 104             	6.31        	0.095999284 	1612            	;
 105             	3.5         	0           	                	;
 106             	4.76        	0           	                	;
 107             	4.07        	0.75335527  	1614            	;
 108             	3.7         	0.973645383 	1614            	;
 109             	5.15        	0.162164293 	1614            	;
 110             	4.47        	0.39069518  	1614            	;
 111             	4.5         	0           	                	;
 112             	3.78        	0           	                	;
 113             	3.5         	0.363094126 	1614            	;
 114             	4.74        	0.134209373 	1614            	;
 115             	4.7         	0.082286501 	1614            	;
 116             	5.29        	0.141255191 	1612            	;
 117             	4.8         	0.518680051 	1612            	;
 118             	5.19        	0           	                	;
 119             	4           	0.109245819 	1614            	;
 120             	6           	0           	                	;
 121             	5.99        	0           	                	;
 122             	4.14        	0           	                	;
 123             	3.5         	0           	                	;
 124             	5.77        	0           	                	;
 125             	4.61        	0           	                	;
 126             	5.53        	0           	                	;
 127             	5.82        	0.380151326 	1612            	;
 129             	5.48        	0.719342549 	1612            	;
 130             	5.45        	0.174545575 	1612            	;
 131             	4.5         	0.522129871 	1612            	;
 132             	4.89        	0.308698515 	1612            	;
 133             	4.93        	0.103522876 	1612            	;
 134             	4.41        	0.56978131  	1612            	;
 135             	6.22        	0.347192456 	1612            	;
 136             	3.5         	0.198643263 	1614            	;
 137             	4.48        	0.1926445   	1612            	;
 138             	5.54        	0.125577802 	1612            	;
 139             	3.5         	0.028748445 	1614            	;
 140             	3.64        	0.181755637 	1614            	;
 141             	4           	0.244017962 	1614            	;
 142             	3.58        	0.190585858 	1614            	;
 143             	4           	0.271415107 	1614            	;
 144             	4           	0.223186706 	1614            	;
 145             	4.08        	0.068973153 	1614            	;
 147             	4.97        	0           	                	;
 148             	3.5         	0.409354716 	1614            	;
 149             	3.75        	0.29373274  	1614            	;
 150             	4.09        	0.149327941 	1612            	;
 151             	4.92        	0.539562338 	1612            	;
 152             	4.77        	0.233137492 	1612            	;
 153             	4.96        	0.121627254 	1612            	;
 154             	4.5         	0.275098786 	1612            	;
 155             	4.04        	0.353792282 	1612            	;
 156             	4.39        	0.013734464 	1612            	;
 157             	6.56        	0.13480435  	1612            	;
 158             	6.03        	0.01256534  	1612            	;
 159             	5.33        	0           	                	;
 160             	3.97        	0.569424386 	1612            	;
 161             	6.06        	0           	                	;
 162             	6.15        	0           	                	;
 163             	5.6         	0           	                	;
 164             	5           	0           	                	;
 165             	4.88        	0           	                	;
 166             	4           	0.850855637 	1614            	;
 167             	4.12        	0.710249622 	1614            	;
 168             	3.5         	0.509849527 	1614            	;
 169             	4.91        	0           	                	;
 170             	4           	0.282795011 	1614            	;
 171             	5.46        	0.939159953 	1612            	;
 172             	5.11        	0           	                	;
 173             	3.5         	0.249031224 	1614            	;
 174             	3.5         	0.313252773 	1614            	;
 175             	3.59        	0.317967126 	1614            	;
 176             	3.97        	0.093910799 	1614            	;
 177             	3.5         	0.547721292 	1614            	;
 178             	3.5         	0.048339007 	1614            	;
 179             	3.57        	0.350742119 	1614            	;
 180             	4.5         	0.152350399 	1612            	;
 181             	4           	0.527770547 	1614            	;
 182             	4.5         	0.195952426 	1612            	;
 183             	4.5         	0.019010224 	1612            	;
 184             	5.22        	0.056669707 	1612            	;
 186             	7.04        	0.319493508 	1612            	;
 187             	6           	0.054992742 	1612            	;
 188             	3.89        	0.153319904 	1614            	;
 189             	4.39        	0.470742288 	1612            	;
 190             	3.5         	0.084426186 	1614            	;
 191             	3.71        	0.494781688 	1614            	;
 192             	3.5         	0.332472606 	1614            	;
 193             	3.73        	0.175829092 	1614            	;
 194             	3.65        	0.438157575 	1614            	;
 195             	3.5         	0.248203762 	1614            	;
 196             	3.5         	0.338955252 	1614            	;
 197             	3.73        	0.425184182 	1614            	;
 198             	5           	0.10317664  	1614            	;
 199             	5.52        	0.404568572 	1612            	;
 200             	4.29        	0.182607978 	1612            	;
 201             	4.87        	0           	                	;
 202             	3.82        	0.163644784 	1614            	;
 203             	5.11        	0.074363661 	1614            	;
 204             	6           	0.166190686 	1614            	;
 205             	4           	0.077889889 	1614            	;
 206             	3.55        	0.116057166 	1614            	;
 207             	3.5         	0.304931968 	1614            	;
 209             	3.54        	0.378758803 	1614            	;
 210             	3.73        	0.617457556 	1614            	;
 211             	3.53        	0.177495658 	1614            	;
 212             	3.46        	0.286518777 	1614            	;
 213             	3.46        	0.383347486 	1614            	;
 214             	5           	0           	                	;
 215             	5           	0           	                	;
 216             	3.97        	0.063942923 	1614            	;
 217             	4.66        	0           	                	;
 218             	3.62        	0.13081332  	1614            	;
 219             	3.62        	0.080447714 	1614            	;
 220             	3.5         	0.329524565 	1614            	;
 221             	3.5         	0.1789172   	1614            	;
 222             	3.5         	0.130633782 	1614            	;
 223             	3.46        	0.686558139 	1614            	;
 224             	3.46        	0.413860527 	1614            	;
 225             	5.2         	0.005588186 	1614            	;
 226             	5.15        	0           	                	;
 227             	3.99        	0.183033266 	1612            	;
 228             	4.5         	0.390405278 	1612            	;
 229             	4.51        	0.458413791 	1612            	;
 230             	3.66        	0.096177357 	1614            	;
 231             	4.25        	1.085350078 	1614            	;
 232             	5.61        	0           	                	;
 233             	3.53        	0.80510022  	1614            	;
 234             	3.5         	0           	                	;
 235             	3.5         	0.086323222 	1614            	;
 236             	3.91        	0.499873594 	1614            	;
 237             	3.5         	0.372026746 	1614            	;
 238             	3.5         	0.135974087 	1614            	;
 239             	3.5         	0.189993902 	1614            	;
 240             	3.5         	0.078138803 	1614            	;
 241             	3.5         	0           	                	;
 242             	5.99        	0.081682527 	1612            	;
 243             	4.01        	0.136015868 	1612            	;
 244             	3.63        	0.062176254 	1614            	;
 245             	3.5         	0.079956866 	1614            	;
 246             	3.5         	1.224144185 	1614            	;
 247             	5.24        	0           	                	;
 248             	5.35        	0           	                	;
 249             	5.28        	0           	                	;
 250             	5.66        	0.302090149 	1612            	;
 251             	8.2         	0.072376727 	1612            	;
 252             	3.5         	0.467418144 	1614            	;
 253             	5.08        	0           	                	;
 254             	6           	0           	                	;
 255             	3.5         	0.272287502 	1614            	;
 256             	4           	0.710410394 	1614            	;
 258             	5.87        	0           	                	;
 259             	7.02        	0.365832005 	1612            	;
 260             	4.39        	0           	                	;
 261             	3.5         	0           	                	;
 262             	6           	0           	                	;
 263             	3.5         	0.270138101 	1614            	;
 264             	5.51        	0           	                	;
 265             	5           	0           	                	;
 266             	3.38        	0.207065312 	1614            	;
 267             	3.5         	0.507379229 	1614            	;
 268             	5.33        	0           	                	;
 269             	3.5         	0.338033713 	1614            	;
 270             	3.64        	0.069696495 	1614            	;
 271             	5.1         	0           	                	;
 273             	3.64        	0           	                	;
 274             	4.39        	0.11153646  	1614            	;
 275             	5.08        	0           	                	;
 415             	3.89        	0.073421751 	1614            	;
 421             	6.15        	0.523384083 	1612            	;
 487             	4.7         	0.038745224 	1614            	;
 544             	4.48        	0.048550202 	1612            	;
 585             	3.64        	0           	                	;
 598             	4.95        	0           	                	;
 608             	4.97        	0           	                	;
 618             	5.11        	0           	                	;
 717             	4.61        	0           	                	;
 1594            	5.36        	0           	                	;
 1595            	4.56        	0           	                	;
 1596            	4           	0           	                	;
 1597            	5.57        	0           	                	;
 1598            	3.63        	0           	                	;
 277-A           	0           	0           	                	;
 277-B           	0           	0           	                	;
 278-A           	0           	0           	                	;
 278-B           	0           	0           	                	;
 279-A           	0           	0           	                	;
 279-B           	0           	0           	                	;
 280-A           	0           	0           	                	;
 280-B           	0           	0           	                	;
 281-A           	0           	0           	                	;
 281-B           	0           	0           	                	;
 282-A           	0           	0           	                	;
 282-B           	0           	0           	                	;
 283-A           	0           	0           	                	;
 283-B           	0           	0           	                	;
 284-A           	0           	0           	                	;
 284-B           	0           	0           	                	;
 285-A           	0           	0           	                	;
 285-B           	0           	0           	                	;
 286-A           	0           	0           	                	;
 286-B           	0           	0           	                	;
 287-A           	0           	0           	                	;
 287-B           	0           	0           	                	;
 288-A           	0           	0           	                	;
 288-B           	0           	0           	                	;
 289-A           	0           	0           	                	;
 289-B           	0           	0           	                	;
 290-A           	0           	0           	                	;
 290-B           	0           	0           	                	;
 291-A           	0           	0           	                	;
 291-B           	0           	0           	                	;
 292-A           	0           	0           	                	;
 292-B           	0           	0           	                	;
 293-A           	0           	0           	                	;
 293-B           	0           	0           	                	;
 294-A           	0           	0           	                	;
 294-B           	0           	0           	                	;
 295-A           	0           	0           	                	;
 295-B           	0           	0           	                	;
 296-A           	0           	0           	                	;
 296-B           	0           	0           	                	;
 297-A           	0           	0           	                	;
 297-B           	0           	0           	                	;
 298-A           	0           	0           	                	;
 298-B           	0           	0           	                	;
 299-A           	0           	0           	                	;
 299-B           	0           	0           	                	;
 300-A           	0           	0           	                	;
 300-B           	0           	0           	                	;
 301-A           	0           	0           	                	;
 301-B           	0           	0           	                	;
 302-A           	0           	0           	                	;
 302-B           	0           	0           	                	;
 303-A           	0           	0           	                	;
 303-B           	0           	0           	                	;
 304-A           	0           	0           	                	;
 304-B           	0           	0           	                	;
 305-A           	0           	0           	                	;
 305-B           	0           	0           	                	;
 306-A           	0           	0           	                	;
 306-B           	0           	0           	                	;
 307-A           	0           	0           	                	;
 307-B           	0           	0           	                	;
 308-A           	0           	0           	                	;
 308-B           	0           	0           	                	;
 309-A           	0           	0           	                	;
 309-B           	0           	0           	                	;
 310-A           	0           	0           	                	;
 310-B           	0           	0           	                	;
 311-A           	0           	0           	                	;
 311-B           	0           	0           	                	;

[RESERVOIRS]
;ID              	Head        	Pattern         
 689             	9.37        	1               	;
 690             	5.34        	2               	;

[TANKS]
;ID              	Elevation   	InitLevel   	MinLevel    	MaxLevel    	Diameter    	MinVol      	VolCurve

[PIPES]
;ID              	Node1           	Node2           	Length      	Diameter    	Roughness   	MinorLoss   	Status
 313             	99              	78              	0.0706162156108052	100         	130         	0           	Open  	;
 314             	275             	253             	3.29759969844752	200         	130         	0           	Open  	;
 317             	253             	274             	2.90704421707483	200         	130         	0           	Open  	;
 318             	51              	260             	0.283956120676101	150         	130         	0           	Open  	;
 319             	241             	261             	0.355418991635653	150         	130         	0           	Open  	;
 320             	232             	30              	0.779278472539381	150         	130         	0           	Open  	;
 324             	274             	57              	4.8067567998758	200         	130         	0           	Open  	;
 325             	250             	163             	2.82489695419055	200         	130         	0           	Open  	;
 326             	241             	240             	1.40059656220213	100         	130         	0           	Open  	;
 327             	172             	118             	2.02453663090134	200         	130         	0           	Open  	;
 328             	40              	159             	1.88712658022605	100         	130         	0           	Open  	;
 329             	199             	163             	2.48324573516344	200         	130         	0           	Open  	;
 330             	135             	161             	1.909319110291	100         	130         	0           	Open  	;
 331             	66              	198             	2.15916670210122	150         	130         	0           	Open  	;
 332             	618             	203             	7.0844455495314	150         	130         	0           	Open  	;
 333             	136             	237             	2.70430971888154	100         	130         	0           	Open  	;
 334             	235             	245             	2.7707386534144	150         	130         	0           	Open  	;
 338             	161             	162             	3.6165181155118	100         	130         	0           	Open  	;
 339             	274             	188             	5.66413216410389	200         	130         	0           	Open  	;
 340             	53              	193             	3.01041115996564	100         	130         	0           	Open  	;
 341             	35              	207             	3.51710058737171	150         	130         	0           	Open  	;
 342             	174             	238             	3.20681422728434	100         	130         	0           	Open  	;
 343             	176             	216             	3.54292760303919	100         	130         	0           	Open  	;
 344             	31              	303-B           	4.34665804571778	150         	130         	0           	Open  	;
 347             	247             	249             	4.28404865044387	200         	130         	0           	Open  	;
 348             	196             	101             	4.40501652888904	100         	130         	0           	Open  	;
 349             	271             	618             	4.4147847730543	150         	130         	0           	Open  	;
 350             	227             	160             	4.50003113724987	100         	130         	0           	Open  	;
 352             	201             	200             	4.61838616171613	100         	130         	0           	Open  	;
 353             	261             	239             	4.80069036798249	100         	130         	0           	Open  	;
 360             	240             	192             	5.01667374379188	100         	130         	0           	Open  	;
 361             	249             	118             	5.02289531927409	200         	130         	0           	Open  	;
 362             	230             	139             	5.05643075187216	150         	130         	0           	Open  	;
 364             	234             	70              	5.28097366062347	150         	130         	0           	Open  	;
 365             	180             	201             	5.38267552987881	100         	130         	0           	Open  	;
 366             	109             	41              	5.52260672250146	200         	130         	0           	Open  	;
 368             	197             	62              	5.89167219286497	150         	130         	0           	Open  	;
 369             	262             	254             	6.67563443952061	150         	130         	0           	Open  	;
 371             	43              	137             	21.7997187107537	100         	130         	0           	Open  	;
 375             	258             	187             	8.1499305663466	100         	130         	0           	Open  	;
 376             	175             	194             	11.2997617205115	100         	130         	0           	Open  	;
 377             	205             	230             	8.70540019287	100         	130         	0           	Open  	;
 378             	244             	218             	9.12578331130261	150         	130         	0           	Open  	;
 379             	244             	206             	9.36919401987637	100         	130         	0           	Open  	;
 380             	254             	204             	14.4324010852346	100         	130         	0           	Open  	;
 381             	186             	259             	9.91421122582696	100         	130         	0           	Open  	;
 382             	51              	50              	10.1214556410084	200         	130         	0           	Open  	;
 383             	131             	183             	10.5650597727653	100         	130         	0           	Open  	;
 385             	228             	182             	10.9187483462826	100         	130         	0           	Open  	;
 386             	152             	153             	11.1474492186707	100         	130         	0           	Open  	;
 387             	254             	121             	7.60887595995747	150         	130         	0           	Open  	;
 388             	126             	264             	12.0459703690715	200         	130         	0           	Open  	;
 389             	211             	234             	12.4056214918504	150         	130         	0           	Open  	;
 390             	132             	133             	12.4000122105926	100         	130         	0           	Open  	;
 391             	225             	55              	16.7634008404099	200         	130         	0           	Open  	;
 396             	99              	247             	15.0008122283138	200         	130         	0           	Open  	;
 397             	173             	246             	15.1523971359227	100         	130         	0           	Open  	;
 398             	156             	43              	15.3999572846005	100         	130         	0           	Open  	;
 399             	251             	129             	16.9665776740755	150         	130         	0           	Open  	;
 400             	36              	54              	17.7259280370614	150         	130         	0           	Open  	;
 403             	268             	32              	18.1879983908433	200         	130         	0           	Open  	;
 404             	179             	252             	18.1147671564847	150         	130         	0           	Open  	;
 407             	113             	190             	19.7061648968385	100         	130         	0           	Open  	;
 410             	159             	232             	20.4651824966074	100         	130         	0           	Open  	;
 411             	38              	231             	21.3130729427172	100         	130         	0           	Open  	;
 412             	74              	75              	24.411735584089	100         	130         	0           	Open  	;
 413             	212             	223             	21.0171078100941	150         	130         	0           	Open  	;
 414             	275             	415             	27.9659403427946	100         	130         	0           	Open  	;
 416             	37              	38              	21.7375453132575	100         	130         	0           	Open  	;
 417             	151             	152             	26.9721677223523	100         	130         	0           	Open  	;
 418             	126             	30              	23.1124859443358	200         	130         	0           	Open  	;
 419             	143             	144             	25.438247591207	100         	130         	0           	Open  	;
 420             	162             	421             	23.2584171087062	100         	130         	0           	Open  	;
 424             	136             	148             	23.2647397715177	150         	130         	0           	Open  	;
 425             	131             	132             	23.6679666262931	100         	130         	0           	Open  	;
 426             	265             	215             	23.7410501613902	200         	130         	0           	Open  	;
 427             	147             	215             	23.8031061603551	200         	130         	0           	Open  	;
 428             	255             	267             	24.0085697140532	150         	130         	0           	Open  	;